<?xml version="1.0" encoding="UTF-8"?>
<scenario name="SC.Add.RFS_HL_NET">
  <objectList>
    <object name="RequestCutterBySubscribers" class="FORIS.ServiceProvisioning.MmlProcessing.SPF.RequestCutterBySubscribers" assembly="FORIS.SPA.MmlProcessing.dll"/>
    <object name="ResponseAssembler" class="FORIS.ServiceProvisioning.MmlProcessing.SPF.ResponseAssembler" assembly="FORIS.SPA.MmlProcessing.dll"/>
    <object name="DummyResponder" class="FORIS.ServiceProvisioning.MmlProcessing.SPF.DummyResponder" assembly="FORIS.SPA.MmlProcessing.dll"/>
    <object name="Commander" class="FORIS.ServiceProvisioning.MmlProcessing.SPF.Processors.RequestProcessor" assembly="FORIS.SPA.MmlProcessing.dll" />
    <object name="DataBaseProcessor" class="FORIS.ScenarioProcessing.CommonUnits.DataBaseProcessor" assembly="FORIS.SPA.SPF.dll"/>
    <object name="XmlNodesCopier" class="FORIS.ScenarioProcessing.CommonUnits.XmlNodesCopier" assembly="FORIS.SPA.SPF.dll"/>
    <object name="Switch" class="FORIS.ScenarioProcessing.CommonUnits.ParametersSwitch" assembly="FORIS.SPA.SPF.dll"/>
    <object name="IfCommander" class="FORIS.ServiceProvisioning.MmlProcessing.SPF.Processors.RequestProcessorConditional" assembly="FORIS.SPA.MmlProcessing.dll"/>
  </objectList>
  <automat>
    <node name="RequestCutterBySubscribers" object="RequestCutterBySubscribers">
      <resultlist>
        <result value="0" node="NAM_Modify"/>
        <result value="1" node=""/>
      </resultlist>
    </node>
    <node name="NAM_Modify" object="Commander">
      <resultlist>
        <result value="0" node="TimeOut"/>
        <result value="" node="ResponseAssembler"/>
      </resultlist>
      <parameterslist>
        <param name="Command" value="SC.NAM_Modify"/>
      </parameterslist>
    </node>
    <node name="TimeOut" object="DummyResponder">
      <resultlist>
        <result value="" node="SwitchType"/>
      </resultlist>
      <parameterslist>
        <param name="OverallResult" value="SUCCESS"/>
        <param name="DetailedResult" value="SUCCESS"/>
        <param name="Delay" value="500"/>
      </parameterslist>
    </node>
    <node name="SwitchType" object="Switch">
      <resultlist>
        <result value="0" node="DummyResponderFAILURE"/>
        <result value="1" node="DummyResponderFAILURE"/>
        <result value="2" node="APN_GPRS_Add"/>
        <result value="3" node="APN_M2M_Add"/>
        <result value="4" node="SelectIPCorporateAPN"/>
      </resultlist>
      <parameterslist>
        <param name="XmlPath" value="//RFS_HL_NET/RES_HL_NET_SERVICE/Value/text()"/>
        <param name="Value:2" value="GPRS"/>
        <param name="Value:3" value="M2M"/>
        <param name="Value:4" value="CorpAPN"/>
      </parameterslist>
    </node>
    <node name="APN_GPRS_Add" object="Commander">
      <resultlist>
        <result value="" node="ResponseAssembler"/>
      </resultlist>
      <parameterslist>
        <param name="Command" value="SC.APN_GPRS_Add"/>
      </parameterslist>
    </node>
    <node name="APN_M2M_Add" object="Commander">
      <resultlist>
        <result value="" node="ResponseAssembler"/>
      </resultlist>
      <parameterslist>
        <param name="Command" value="SC.APN_M2M_Add"/>
      </parameterslist>
    </node>
    <node name="SelectIPCorporateAPN" object="DataBaseProcessor">
      <resultlist>
        <result value="" node="ExtractIP"/>
      </resultlist>
      <parameterslist>
        <param name="DataBaseName" value="FORIS.SPA.ARCHIVE"/>
        <param name="FunctionName" value="CORPORATE_APN_ADD"/>
        <param name="FunctionType" value="function"/>
        <param name="OutXml" value="db_unit_result"/>
        <param name="DbParameterName:0" value="p_msisdn"/>
        <param name="DbParameterDirection:0" value="Input"/>
        <param name="DbParameterType:0" value="Varchar2"/>
        <param name="DbParameterXpathValue:0" value="//IdentifiersList/Identifier/MSISDN" />
        <param name="DbParameterName:1" value="p_service"/>
        <param name="DbParameterDirection:1" value="Input"/>
        <param name="DbParameterType:1" value="Varchar2"/>
        <param name="DbParameterXpathValue:1" value="//RES_HL_NET_APN/Value/text()" />
        <param name="DbParameterName:2" value="p_result"/>
        <param name="DbParameterDirection:2" value="ReturnValue"/>
        <param name="DbParameterType:2" value="Varchar2"/>
        <param name="DbParameterValue:2" value=""/>
      </parameterslist>
    </node>
    <node name="ExtractIP" object="XmlNodesCopier">
      <resultlist>
        <result value="" node="ParameterSwitch"/>
      </resultlist>
      <parameterslist>
        <param name="SrcXml" value="db_unit_result"/>
        <param name="DstMessage" value="xmlrequest"/>
        <param name="CopyContentType" value="InnerText"/>
        <param name="SrcXmlPath:0" value="root/return"/>
        <param name="DstXmlPath:0" value="ExtendedRequestMessage/AdditionalData/IP"/>
      </parameterslist>
    </node>
    <node name="ParameterSwitch" object="Switch">
      <resultlist>
        <result value="2" node="DummyResponderFAILURE"/>
        <result value="" node="APN_Corporate_Add"/>
      </resultlist>
      <parameterslist>
        <param name="XmlPath" value="ExtendedRequestMessage/AdditionalData/IP"/>
        <param name="Value:2" value="err001"/>
      </parameterslist>
    </node>
    <node name="APN_Corporate_Add" object="Commander">
      <resultlist>
        <result value="0" node="APN_CorporateIP_Add"/>
        <result value="" node="ResponseAssembler"/>
      </resultlist>
      <parameterslist>
        <param name="Command" value="SC.APN_Corporate_Add"/>
      </parameterslist>
    </node>
    <node name="APN_CorporateIP_Add" object="IfCommander">
      <resultlist>
        <result value="0" node="ResponseAssembler"/>
        <result value="1538" node="ResponseAssembler"/>
        <result value="" node="DataBaseProcessorDELETENUM"/>
      </resultlist>
      <parameterslist>
        <param name="IfNotXmlPath" value="ExtendedRequestMessage/AdditionalData/IP[text()='DYNAMIC']"/>
        <param name="Command" value="SC.APN_CorporateIP_Add"/>
      </parameterslist>
    </node>
    <node name="DataBaseProcessorDELETENUM" object="DataBaseProcessor">
      <resultlist>
        <result value="" node="DummyResponderFAILURE"/>
      </resultlist>
      <parameterslist>
        <param name="DataBaseName" value="FORIS.SPA.ARCHIVE"/>
        <param name="FunctionName" value="CORPORATE_APN_DELETE"/>
        <param name="FunctionType" value="procedure"/>
        <param name="OutXml" value="db_unit_result"/>
        <param name="DbParameterName:0" value="p_msisdn"/>
        <param name="DbParameterDirection:0" value="Input"/>
        <param name="DbParameterType:0" value="Varchar2"/>
        <param name="DbParameterXpathValue:0" value="//IdentifiersList/Identifier/MSISDN" />
      </parameterslist>
    </node>
    <node name="DummyResponderFAILURE" object="DummyResponder">
      <resultlist>
        <result value="" node="ResponseAssembler"/>
      </resultlist>
      <parameterslist>
        <param name="OverallResult" value="FAILURE"/>
        <param name="DetailedResult" value="FAILURE"/>
        <param name="Delay" value="0"/>
      </parameterslist>
    </node>
    <node name="ResponseAssembler" object="ResponseAssembler">
      <resultlist>
        <result value="" node="RequestCutterBySubscribers"/>
      </resultlist>
    </node>
  </automat>
</scenario>