<?xml version="1.0" encoding="UTF-8"?>
<scenario name="SC.Remove.RFS_HL_NET">
  <objectList>
    <object name="RequestCutterBySubscribers" class="FORIS.ServiceProvisioning.MmlProcessing.SPF.RequestCutterBySubscribers" assembly="FORIS.SPA.MmlProcessing.dll"/>
    <object name="ResponseAssembler" class="FORIS.ServiceProvisioning.MmlProcessing.SPF.ResponseAssembler" assembly="FORIS.SPA.MmlProcessing.dll"/>
    <object name="Commander" class="FORIS.ServiceProvisioning.MmlProcessing.SPF.Processors.RequestProcessor" assembly="FORIS.SPA.MmlProcessing.dll" />
    <object name="DataBaseProcessor" class="FORIS.ScenarioProcessing.CommonUnits.DataBaseProcessor" assembly="FORIS.SPA.SPF.dll"/>
    <object name="Switch" class="FORIS.ScenarioProcessing.CommonUnits.ParametersSwitch" assembly="FORIS.SPA.SPF.dll"/>
  </objectList>
  <automat>
    <node name="RequestCutterBySubscribers" object="RequestCutterBySubscribers">
      <resultlist>
        <result value="0" node="APN_GPRS_Delete"/>
        <result value="1" node=""/>
      </resultlist>
    </node>
    <node name="SwitchType" object="Switch">
      <resultlist>
        <result value="0" node="DummyResponderFAILURE"/>
        <result value="1" node="DummyResponderFAILURE"/>
        <result value="2" node="APN_GPRS_Delete"/>
        <result value="3" node="APN_M2M_Delete"/>
        <result value="3" node="APN_Corporate_Delete"/>
      </resultlist>
      <parameterslist>
        <param name="XmlPath" value="//RFS_HL_NET/RES_HL_NET_SERVICE/Value/text()"/>
        <param name="Value:2" value="GPRS"/>
        <param name="Value:3" value="M2M"/>
        <param name="Value:4" value="CorpAPN"/>
      </parameterslist>
    </node>
    <node name="APN_GPRS_Delete" object="Commander">
      <resultlist>
        <result value="0" node="GPRSNAM_Modify"/>
        <result value="" node="ResponseAssembler"/>
      </resultlist>
      <parameterslist>
        <param name="Command" value="SC.APN_GPRS_Delete"/>
      </parameterslist>
    </node>
    <node name="APN_M2M_Delete" object="Commander">
      <resultlist>
        <result value="0" node="GPRSNAM_Modify"/>
        <result value="" node="ResponseAssembler"/>
      </resultlist>
      <parameterslist>
        <param name="Command" value="SC.APN_M2M_Delete"/>
      </parameterslist>
    </node>
    <node name="APN_Corporate_Delete" object="Commander">
      <resultlist>
        <result value="0" node="DataBaseProcessorDELETENUM"/>
        <result value="" node="ResponseAssembler"/>
      </resultlist>
      <parameterslist>
        <param name="Command" value="SC.APN_Corporate_Delete"/>
      </parameterslist>
    </node>
    <node name="DataBaseProcessorDELETENUM" object="DataBaseProcessor">
      <resultlist>
        <result value="" node="GPRSNAM_Modify"/>
      </resultlist>
      <parameterslist>
        <param name="DataBaseName" value="FORIS.SPA.ARCHIVE"/>
        <param name="FunctionName" value="CORPORATE_APN_DELETE"/>
        <param name="FunctionType" value="procedure"/>
        <param name="OutXml" value="db_unit_result"/>
        <param name="DbParameterName:0" value="p_msisdn"/>
        <param name="DbParameterDirection:0" value="Input"/>
        <param name="DbParameterType:0" value="Varchar2"/>
        <param name="DbParameterXpathValue:0" value="//IdentifiersList/Identifier/MSISDN" />
      </parameterslist>
    </node>
    <node name="GPRSNAM_Modify" object="Commander">
      <resultlist>
        <result value="" node="ResponseAssembler"/>
      </resultlist>
      <parameterslist>
        <param name="Command" value="SC.GPRSNAM_Modify"/>
      </parameterslist>
    </node>
    <node name="ResponseAssembler" object="ResponseAssembler">
      <resultlist>
        <result value="" node="RequestCutterBySubscribers"/>
      </resultlist>
    </node>
  </automat>
</scenario>