<scenario name="SC.HLR.Modify.NET">
  <objectList>
    <object name="Commander" class="FORIS.ServiceProvisioning.MmlProcessing.SPF.Processors.RequestProcessor" assembly="FORIS.SPA.MmlProcessing.dll" />
    <object name="RequestCutterBySubscribers" class="FORIS.ServiceProvisioning.MmlProcessing.SPF.RequestCutterBySubscribers" assembly="FORIS.SPA.MmlProcessing.dll" />
    <object name="ResponseAssembler" class="FORIS.ServiceProvisioning.MmlProcessing.SPF.ResponseAssembler" assembly="FORIS.SPA.MmlProcessing.dll" />
    <object name="IfCommander" class="FORIS.ServiceProvisioning.MmlProcessing.SPF.Processors.RequestProcessorConditional" assembly="FORIS.SPA.MmlProcessing.dll" />
  </objectList>
  <automat>
    <node name="RequestCutterBySubscribers" object="RequestCutterBySubscribers">
      <resultlist>
        <result value="0" node="Modify_GPRS_Barring" />
        <result value="1" node="" />
      </resultlist>
    </node>
    <node name="Modify_GPRS_Barring" object="Commander">
      <resultlist>
        <result value="0" node="Modify_NAM" />
        <result value="" node="ResponseAssembler" />
      </resultlist>
      <parameterslist>
        <param name="Command" value="SC.Modify_GPRS_Barring" />
      </parameterslist>
    </node>
    <node name="Modify_NAM" object="IfCommander">
      <resultlist>
        <result value="0" node="CancelLocation" />
        <result value="1538" node="ResponseAssembler" />
        <result value="" node="ResponseAssembler" />
      </resultlist>
      <parameterslist>
        <param name="OrXmlPath:0" value="//EndList/RFS_HLR_ROAMING" />
        <param name="OrXmlPath:1" value="//EndList/RFS_HLR_INSPECT_FLAG" />
        <param name="Command" value="SC.Modify_NAM" />
      </parameterslist>
    </node>
    <node name="CancelLocation" object="Commander">
      <resultlist>
        <result value="" node="ResponseAssembler" />
      </resultlist>
      <parameterslist>
        <param name="Command" value="SC.CancelLocation" />
      </parameterslist>
    </node>
    <node name="ResponseAssembler" object="ResponseAssembler">
      <resultlist>
        <result value="" node="RequestCutterBySubscribers" />
      </resultlist>
    </node>
  </automat>
</scenario>